
   VSFlow 1.0 (RDKit 3D)

 59 62  0  0  0  0  0  0  0  0999 V2000
   47.7470   85.4024   43.2145 C   0  0  0  0  0  0  0  0  0  0  0  0
   49.0888   84.7456   43.0332 C   0  0  0  0  0  0  0  0  0  0  0  0
   50.1279   85.1952   43.8753 C   0  0  0  0  0  0  0  0  0  0  0  0
   51.4365   84.7379   43.7279 C   0  0  0  0  0  0  0  0  0  0  0  0
   51.7365   83.8249   42.7258 C   0  0  0  0  0  0  0  0  0  0  0  0
   50.7173   83.3491   41.8997 C   0  0  0  0  0  0  0  0  0  0  0  0
   51.1495   82.2030   40.6700 Cl  0  0  0  0  0  0  0  0  0  0  0  0
   49.3753   83.7621   42.0664 C   0  0  0  0  0  0  0  0  0  0  0  0
   48.4181   83.1852   41.1895 N   0  0  0  0  0  0  0  0  0  0  0  0
   47.1177   82.8185   41.5054 C   0  0  0  0  0  0  0  0  0  0  0  0
   46.6463   82.8957   42.6356 O   0  0  0  0  0  0  0  0  0  0  0  0
   46.3811   82.2703   40.3790 C   0  0  0  0  0  0  0  0  0  0  0  0
   46.6149   82.3590   39.0223 C   0  0  0  0  0  0  0  0  0  0  0  0
   45.7092   81.7076   38.2088 N   0  0  0  0  0  0  0  0  0  0  0  0
   44.7897   81.1048   38.9342 C   0  0  0  0  0  0  0  0  0  0  0  0
   43.7740   80.4276   38.3461 N   0  0  0  0  0  0  0  0  0  0  0  0
   43.2178   79.2156   38.8176 C   0  0  0  0  0  0  0  0  0  0  0  0
   42.0723   78.7492   38.1961 C   0  0  0  0  0  0  0  0  0  0  0  0
   41.5052   77.5719   38.6543 C   0  0  0  0  0  0  0  0  0  0  0  0
   40.3373   77.0809   38.0359 N   0  0  0  0  0  0  0  0  0  0  0  0
   39.6492   75.9962   38.7782 C   0  0  0  0  0  0  0  0  0  0  0  0
   40.0261   74.6066   38.2195 C   0  0  0  0  0  0  0  0  0  0  0  0
   39.7072   74.4189   36.7860 N   0  0  0  0  0  0  0  0  0  0  0  0
   38.5987   73.4894   36.5243 C   0  0  0  0  0  0  0  0  0  0  0  0
   37.1962   73.8454   37.0586 C   0  0  0  0  0  0  0  0  0  0  0  0
   37.1178   73.7733   38.4784 O   0  0  0  0  0  0  0  0  0  0  0  0
   39.5625   75.7101   36.0842 C   0  0  0  0  0  0  0  0  0  0  0  0
   40.5481   76.7875   36.5963 C   0  0  0  0  0  0  0  0  0  0  0  0
   42.0480   76.9122   39.6881 N   0  0  0  0  0  0  0  0  0  0  0  0
   43.1594   77.4233   40.2411 C   0  0  0  0  0  0  0  0  0  0  0  0
   43.7398   76.7054   41.4184 C   0  0  0  0  0  0  0  0  0  0  0  0
   43.7660   78.5514   39.8435 N   0  0  0  0  0  0  0  0  0  0  0  0
   44.9440   81.3723   40.6332 S   0  0  0  0  0  0  0  0  0  0  0  0
   47.1789   85.4308   42.2804 H   0  0  0  0  0  0  0  0  0  0  0  0
   47.1723   84.8949   43.9943 H   0  0  0  0  0  0  0  0  0  0  0  0
   47.8716   86.4490   43.5170 H   0  0  0  0  0  0  0  0  0  0  0  0
   49.9174   85.9340   44.6482 H   0  0  0  0  0  0  0  0  0  0  0  0
   52.2200   85.1082   44.3844 H   0  0  0  0  0  0  0  0  0  0  0  0
   52.7595   83.4816   42.5977 H   0  0  0  0  0  0  0  0  0  0  0  0
   48.8309   82.6631   40.4235 H   0  0  0  0  0  0  0  0  0  0  0  0
   47.4296   82.8990   38.5549 H   0  0  0  0  0  0  0  0  0  0  0  0
   43.8632   80.4036   37.3376 H   0  0  0  0  0  0  0  0  0  0  0  0
   41.6096   79.3081   37.3936 H   0  0  0  0  0  0  0  0  0  0  0  0
   39.8280   76.0384   39.8593 H   0  0  0  0  0  0  0  0  0  0  0  0
   38.5690   76.1522   38.6640 H   0  0  0  0  0  0  0  0  0  0  0  0
   39.5904   73.8176   38.8415 H   0  0  0  0  0  0  0  0  0  0  0  0
   41.1119   74.4787   38.3190 H   0  0  0  0  0  0  0  0  0  0  0  0
   38.5235   73.3515   35.4383 H   0  0  0  0  0  0  0  0  0  0  0  0
   38.8852   72.5098   36.9280 H   0  0  0  0  0  0  0  0  0  0  0  0
   36.8801   74.8444   36.7482 H   0  0  0  0  0  0  0  0  0  0  0  0
   36.4648   73.1370   36.6544 H   0  0  0  0  0  0  0  0  0  0  0  0
   37.3678   72.8694   38.7366 H   0  0  0  0  0  0  0  0  0  0  0  0
   38.5477   76.1103   36.1891 H   0  0  0  0  0  0  0  0  0  0  0  0
   39.7378   75.5520   35.0137 H   0  0  0  0  0  0  0  0  0  0  0  0
   40.3986   77.7054   36.0156 H   0  0  0  0  0  0  0  0  0  0  0  0
   41.5723   76.4348   36.4101 H   0  0  0  0  0  0  0  0  0  0  0  0
   43.5371   75.6320   41.3537 H   0  0  0  0  0  0  0  0  0  0  0  0
   43.2976   77.0932   42.3406 H   0  0  0  0  0  0  0  0  0  0  0  0
   44.8241   76.8472   41.4599 H   0  0  0  0  0  0  0  0  0  0  0  0
  1  2  1  0
  2  3  2  0
  3  4  1  0
  4  5  2  0
  5  6  1  0
  6  7  1  0
  6  8  2  0
  8  9  1  0
  9 10  1  0
 10 11  2  0
 10 12  1  0
 12 13  2  0
 13 14  1  0
 14 15  2  0
 15 16  1  0
 16 17  1  0
 17 18  2  0
 18 19  1  0
 19 20  1  0
 20 21  1  0
 21 22  1  0
 22 23  1  0
 23 24  1  0
 24 25  1  0
 25 26  1  0
 23 27  1  0
 27 28  1  0
 19 29  2  0
 29 30  1  0
 30 31  1  0
 30 32  2  0
 15 33  1  0
  8  2  1  0
 33 12  1  0
 32 17  1  0
 28 20  1  0
  1 34  1  0
  1 35  1  0
  1 36  1  0
  3 37  1  0
  4 38  1  0
  5 39  1  0
  9 40  1  0
 13 41  1  0
 16 42  1  0
 18 43  1  0
 21 44  1  0
 21 45  1  0
 22 46  1  0
 22 47  1  0
 24 48  1  0
 24 49  1  0
 25 50  1  0
 25 51  1  0
 26 52  1  0
 27 53  1  0
 27 54  1  0
 28 55  1  0
 28 56  1  0
 31 57  1  0
 31 58  1  0
 31 59  1  0
M  END
>  <zinc_id>
ZINC000003986735

>  <smiles>
Cc1nc(Nc2ncc(C(=O)Nc3c(C)cccc3Cl)s2)cc(N2CCN(CCO)CC2)n1

>  <Combo_Score>
0.6172017247003588

>  <Shape_Similarity>
0.6382591093117409

>  <3D_FP_Similarity>
0.5961443400889768

>  <QuerySmiles>
Cc1nc(Nc2ncc(C(=O)Nc3c(C)cccc3Cl)s2)cc(N2CCN(CCO)CC2)n1

$$$$

   VSFlow 1.0 (RDKit 3D)

 51 53  0  0  0  0  0  0  0  0999 V2000
   52.5091   85.1096   44.3779 N   0  0  0  0  0  0  0  0  0  0  0  0
   51.3869   84.7256   43.6787 C   0  0  0  0  0  0  0  0  0  0  0  0
   50.2157   85.1919   44.0953 N   0  0  0  0  0  0  0  0  0  0  0  0
   49.1548   84.7918   43.3836 C   0  0  0  0  0  0  0  0  0  0  0  0
   47.9439   85.2858   43.8140 O   0  0  0  0  0  0  0  0  0  0  0  0
   49.1833   83.9486   42.2958 C   0  0  0  0  0  0  0  0  0  0  0  0
   48.0549   83.5823   41.6160 N   0  0  0  0  0  0  0  0  0  0  0  0
   48.2490   82.7475   40.5661 C   0  0  0  0  0  0  0  0  0  0  0  0
   47.0499   82.2712   39.7782 C   0  0  0  0  0  0  0  0  0  0  0  0
   46.6330   80.9571   40.2604 N   0  0  0  0  0  0  0  0  0  0  0  0
   45.5063   80.3419   39.7046 C   0  0  0  0  0  0  0  0  0  0  0  0
   44.9920   80.6510   38.4409 C   0  0  0  0  0  0  0  0  0  0  0  0
   43.9049   79.9452   37.9090 C   0  0  0  0  0  0  0  0  0  0  0  0
   43.3209   78.8964   38.6244 C   0  0  0  0  0  0  0  0  0  0  0  0
   42.1706   78.1741   38.0135 C   0  0  0  0  0  0  0  0  0  0  0  0
   41.9925   78.2013   36.8009 O   0  0  0  0  0  0  0  0  0  0  0  0
   41.3218   77.5213   38.8777 N   0  0  0  0  0  0  0  0  0  0  0  0
   40.1004   76.8662   38.4021 C   0  0  1  0  0  0  0  0  0  0  0  0
   40.4238   75.4809   37.8311 C   0  0  0  0  0  0  0  0  0  0  0  0
   39.3465   74.9834   36.8660 C   0  0  0  0  0  0  0  0  0  0  0  0
   39.6999   73.6336   36.3042 C   0  0  0  0  0  0  0  0  0  0  0  0
   40.5492   72.8612   36.7136 O   0  0  0  0  0  0  0  0  0  0  0  0
   38.9251   73.3066   35.2518 O   0  0  0  0  0  0  0  0  0  0  0  0
   39.1000   76.7512   39.5601 C   0  0  0  0  0  0  0  0  0  0  0  0
   37.9795   76.2701   39.5091 O   0  0  0  0  0  0  0  0  0  0  0  0
   39.5673   77.2406   40.7345 O   0  0  0  0  0  0  0  0  0  0  0  0
   43.8582   78.5377   39.8623 C   0  0  0  0  0  0  0  0  0  0  0  0
   44.9442   79.2508   40.3855 C   0  0  0  0  0  0  0  0  0  0  0  0
   49.5212   82.2949   40.2563 C   0  0  0  0  0  0  0  0  0  0  0  0
   50.6269   82.6738   40.9448 N   0  0  0  0  0  0  0  0  0  0  0  0
   50.4714   83.5120   41.9763 C   0  0  0  0  0  0  0  0  0  0  0  0
   51.5525   83.8873   42.6576 N   0  0  0  0  0  0  0  0  0  0  0  0
   52.2642   85.3965   45.3155 H   0  0  0  0  0  0  0  0  0  0  0  0
   53.2511   84.4323   44.2709 H   0  0  0  0  0  0  0  0  0  0  0  0
   47.2866   84.9189   43.1922 H   0  0  0  0  0  0  0  0  0  0  0  0
   46.2361   82.9966   39.8988 H   0  0  0  0  0  0  0  0  0  0  0  0
   47.3229   82.2390   38.7168 H   0  0  0  0  0  0  0  0  0  0  0  0
   46.6060   80.9195   41.2790 H   0  0  0  0  0  0  0  0  0  0  0  0
   45.4197   81.4417   37.8326 H   0  0  0  0  0  0  0  0  0  0  0  0
   43.5219   80.2144   36.9261 H   0  0  0  0  0  0  0  0  0  0  0  0
   41.3639   77.7071   39.8744 H   0  0  0  0  0  0  0  0  0  0  0  0
   39.6543   77.5204   37.6439 H   0  0  0  0  0  0  0  0  0  0  0  0
   41.3811   75.5051   37.2939 H   0  0  0  0  0  0  0  0  0  0  0  0
   40.5562   74.7589   38.6478 H   0  0  0  0  0  0  0  0  0  0  0  0
   38.3787   74.8922   37.3673 H   0  0  0  0  0  0  0  0  0  0  0  0
   39.2514   75.6893   36.0332 H   0  0  0  0  0  0  0  0  0  0  0  0
   39.2440   72.4184   34.9876 H   0  0  0  0  0  0  0  0  0  0  0  0
   38.8200   77.0943   41.3547 H   0  0  0  0  0  0  0  0  0  0  0  0
   43.4762   77.6880   40.4201 H   0  0  0  0  0  0  0  0  0  0  0  0
   45.3624   78.9332   41.3387 H   0  0  0  0  0  0  0  0  0  0  0  0
   49.6971   81.5993   39.4408 H   0  0  0  0  0  0  0  0  0  0  0  0
  1  2  1  0
  2  3  2  0
  3  4  1  0
  4  5  1  0
  4  6  2  0
  6  7  1  0
  7  8  2  0
  8  9  1  0
  9 10  1  0
 10 11  1  0
 11 12  2  0
 12 13  1  0
 13 14  2  0
 14 15  1  0
 15 16  2  0
 15 17  1  0
 18 17  1  0
 18 19  1  0
 19 20  1  0
 20 21  1  0
 21 22  2  0
 21 23  1  0
 18 24  1  0
 24 25  2  0
 24 26  1  0
 14 27  1  0
 27 28  2  0
  8 29  1  0
 29 30  2  0
 30 31  1  0
 31 32  2  0
 32  2  1  0
 31  6  1  0
 28 11  1  0
  1 33  1  0
  1 34  1  0
  5 35  1  0
  9 36  1  0
  9 37  1  0
 10 38  1  0
 12 39  1  0
 13 40  1  0
 17 41  1  0
 18 42  1  6
 19 43  1  0
 19 44  1  0
 20 45  1  0
 20 46  1  0
 23 47  1  0
 26 48  1  0
 27 49  1  0
 28 50  1  0
 29 51  1  0
M  END
>  <zinc_id>
ZINC000008577218

>  <smiles>
Nc1nc(O)c2nc(CNc3ccc(C(=O)N[C@@H](CCC(=O)O)C(=O)O)cc3)cnc2n1

>  <Combo_Score>
0.4296906167471234

>  <Shape_Similarity>
0.5393347938657638

>  <3D_FP_Similarity>
0.32004643962848295

>  <QuerySmiles>
Cc1nc(Nc2ncc(C(=O)Nc3c(C)cccc3Cl)s2)cc(N2CCN(CCO)CC2)n1

$$$$

   VSFlow 1.0 (RDKit 3D)

 68 72  0  0  0  0  0  0  0  0999 V2000
   39.5590   74.4360   41.0679 C   0  0  0  0  0  0  0  0  0  0  0  0
   40.6129   75.4542   40.7286 C   0  0  0  0  0  0  0  0  0  0  0  0
   41.6040   75.7294   41.6832 C   0  0  0  0  0  0  0  0  0  0  0  0
   42.5997   76.6749   41.4304 C   0  0  0  0  0  0  0  0  0  0  0  0
   42.6318   77.3628   40.2159 C   0  0  0  0  0  0  0  0  0  0  0  0
   43.6708   78.3001   40.0320 N   0  0  0  0  0  0  0  0  0  0  0  0
   43.8418   79.1645   38.9655 C   0  0  0  0  0  0  0  0  0  0  0  0
   43.0797   79.3300   38.0210 O   0  0  0  0  0  0  0  0  0  0  0  0
   45.0759   79.9961   39.0336 C   0  0  0  0  0  0  0  0  0  0  0  0
   46.2867   79.4739   39.5061 C   0  0  0  0  0  0  0  0  0  0  0  0
   47.4257   80.2832   39.5541 C   0  0  0  0  0  0  0  0  0  0  0  0
   47.3693   81.6184   39.1277 C   0  0  0  0  0  0  0  0  0  0  0  0
   48.6068   82.4945   39.1624 C   0  0  0  0  0  0  0  0  0  0  0  0
   48.4235   83.7230   39.9506 N   0  0  0  0  0  0  0  0  0  0  0  0
   49.5486   84.6608   39.7447 C   0  0  0  0  0  0  0  0  0  0  0  0
   50.8746   84.2465   40.4271 C   0  0  0  0  0  0  0  0  0  0  0  0
   50.7066   83.9957   41.8688 N   0  0  0  0  0  0  0  0  0  0  0  0
   51.9520   83.5315   42.4721 C   0  0  0  0  0  0  0  0  0  0  0  0
   49.6119   83.0381   42.1039 C   0  0  0  0  0  0  0  0  0  0  0  0
   48.2991   83.4608   41.4015 C   0  0  0  0  0  0  0  0  0  0  0  0
   46.1559   82.1256   38.6377 C   0  0  0  0  0  0  0  0  0  0  0  0
   45.0173   81.3193   38.5856 C   0  0  0  0  0  0  0  0  0  0  0  0
   41.6613   77.0741   39.2546 C   0  0  0  0  0  0  0  0  0  0  0  0
   40.6461   76.1257   39.4926 C   0  0  0  0  0  0  0  0  0  0  0  0
   39.7359   75.8453   38.4517 N   0  0  0  0  0  0  0  0  0  0  0  0
   39.7097   74.6786   37.6751 C   0  0  0  0  0  0  0  0  0  0  0  0
   40.2413   73.5312   38.1171 N   0  0  0  0  0  0  0  0  0  0  0  0
   40.1792   72.4706   37.2982 C   0  0  0  0  0  0  0  0  0  0  0  0
   39.6116   72.5097   36.0493 C   0  0  0  0  0  0  0  0  0  0  0  0
   39.0908   73.7259   35.6556 C   0  0  0  0  0  0  0  0  0  0  0  0
   38.4432   73.9421   34.3487 C   0  0  0  0  0  0  0  0  0  0  0  0
   37.4419   74.9104   34.1740 C   0  0  0  0  0  0  0  0  0  0  0  0
   36.8361   75.0978   32.9318 C   0  0  0  0  0  0  0  0  0  0  0  0
   37.2487   74.3059   31.8764 C   0  0  0  0  0  0  0  0  0  0  0  0
   38.2086   73.3653   31.9827 N   0  0  0  0  0  0  0  0  0  0  0  0
   38.7808   73.2158   33.2047 C   0  0  0  0  0  0  0  0  0  0  0  0
   39.1348   74.8067   36.4686 N   0  0  0  0  0  0  0  0  0  0  0  0
   39.3202   74.4732   42.1368 H   0  0  0  0  0  0  0  0  0  0  0  0
   38.6223   74.6267   40.5353 H   0  0  0  0  0  0  0  0  0  0  0  0
   39.9134   73.4291   40.8293 H   0  0  0  0  0  0  0  0  0  0  0  0
   41.5993   75.2076   42.6378 H   0  0  0  0  0  0  0  0  0  0  0  0
   43.3429   76.8629   42.2001 H   0  0  0  0  0  0  0  0  0  0  0  0
   44.3139   78.3980   40.8064 H   0  0  0  0  0  0  0  0  0  0  0  0
   46.3666   78.4334   39.8092 H   0  0  0  0  0  0  0  0  0  0  0  0
   48.3608   79.8621   39.9170 H   0  0  0  0  0  0  0  0  0  0  0  0
   48.8215   82.7564   38.1173 H   0  0  0  0  0  0  0  0  0  0  0  0
   49.4687   81.9121   39.5085 H   0  0  0  0  0  0  0  0  0  0  0  0
   49.7204   84.8165   38.6724 H   0  0  0  0  0  0  0  0  0  0  0  0
   49.2460   85.6417   40.1359 H   0  0  0  0  0  0  0  0  0  0  0  0
   51.5988   85.0576   40.2831 H   0  0  0  0  0  0  0  0  0  0  0  0
   51.2810   83.3591   39.9251 H   0  0  0  0  0  0  0  0  0  0  0  0
   52.7455   84.2745   42.3354 H   0  0  0  0  0  0  0  0  0  0  0  0
   52.2918   82.5819   42.0434 H   0  0  0  0  0  0  0  0  0  0  0  0
   51.8289   83.3971   43.5524 H   0  0  0  0  0  0  0  0  0  0  0  0
   49.8982   82.0331   41.7689 H   0  0  0  0  0  0  0  0  0  0  0  0
   49.4149   82.9734   43.1810 H   0  0  0  0  0  0  0  0  0  0  0  0
   47.5221   82.7137   41.6005 H   0  0  0  0  0  0  0  0  0  0  0  0
   47.9347   84.3824   41.8759 H   0  0  0  0  0  0  0  0  0  0  0  0
   46.0974   83.1584   38.2980 H   0  0  0  0  0  0  0  0  0  0  0  0
   44.0851   81.7262   38.1992 H   0  0  0  0  0  0  0  0  0  0  0  0
   41.6846   77.5661   38.2873 H   0  0  0  0  0  0  0  0  0  0  0  0
   39.6216   76.6056   37.7911 H   0  0  0  0  0  0  0  0  0  0  0  0
   40.6124   71.5561   37.6922 H   0  0  0  0  0  0  0  0  0  0  0  0
   39.5716   71.6204   35.4358 H   0  0  0  0  0  0  0  0  0  0  0  0
   37.1257   75.5264   35.0141 H   0  0  0  0  0  0  0  0  0  0  0  0
   36.0626   75.8451   32.7963 H   0  0  0  0  0  0  0  0  0  0  0  0
   36.8081   74.4122   30.8894 H   0  0  0  0  0  0  0  0  0  0  0  0
   39.5653   72.4638   33.2204 H   0  0  0  0  0  0  0  0  0  0  0  0
  1  2  1  0
  2  3  2  0
  3  4  1  0
  4  5  2  0
  5  6  1  0
  6  7  1  0
  7  8  2  0
  7  9  1  0
  9 10  2  0
 10 11  1  0
 11 12  2  0
 12 13  1  0
 13 14  1  0
 14 15  1  0
 15 16  1  0
 16 17  1  0
 17 18  1  0
 17 19  1  0
 19 20  1  0
 12 21  1  0
 21 22  2  0
  5 23  1  0
 23 24  2  0
 24 25  1  0
 25 26  1  0
 26 27  2  0
 27 28  1  0
 28 29  2  0
 29 30  1  0
 30 31  1  0
 31 32  2  0
 32 33  1  0
 33 34  2  0
 34 35  1  0
 35 36  2  0
 30 37  2  0
 24  2  1  0
 37 26  1  0
 22  9  1  0
 36 31  1  0
 20 14  1  0
  1 38  1  0
  1 39  1  0
  1 40  1  0
  3 41  1  0
  4 42  1  0
  6 43  1  0
 10 44  1  0
 11 45  1  0
 13 46  1  0
 13 47  1  0
 15 48  1  0
 15 49  1  0
 16 50  1  0
 16 51  1  0
 18 52  1  0
 18 53  1  0
 18 54  1  0
 19 55  1  0
 19 56  1  0
 20 57  1  0
 20 58  1  0
 21 59  1  0
 22 60  1  0
 23 61  1  0
 25 62  1  0
 28 63  1  0
 29 64  1  0
 32 65  1  0
 33 66  1  0
 34 67  1  0
 36 68  1  0
M  END
>  <zinc_id>
ZINC000019632618

>  <smiles>
Cc1ccc(NC(=O)c2ccc(CN3CCN(C)CC3)cc2)cc1Nc1nccc(-c2cccnc2)n1

>  <Combo_Score>
0.4255824089240642

>  <Shape_Similarity>
0.444255028980566

>  <3D_FP_Similarity>
0.4069097888675624

>  <QuerySmiles>
Cc1nc(Nc2ncc(C(=O)Nc3c(C)cccc3Cl)s2)cc(N2CCN(CCO)CC2)n1

$$$$

   VSFlow 1.0 (RDKit 3D)

 63 67  0  0  0  0  0  0  0  0999 V2000
   44.4778   79.9144   36.0188 C   0  0  0  0  0  0  0  0  0  0  0  0
   43.6238   80.5138   36.9926 O   0  0  0  0  0  0  0  0  0  0  0  0
   44.0031   80.1135   38.2576 C   0  0  0  0  0  0  0  0  0  0  0  0
   44.9814   80.8467   38.9610 C   0  0  0  0  0  0  0  0  0  0  0  0
   45.5366   81.9042   38.2888 O   0  0  0  0  0  0  0  0  0  0  0  0
   46.3616   82.8242   39.0069 C   0  0  0  0  0  0  0  0  0  0  0  0
   47.8274   82.4061   38.9005 C   0  0  0  0  0  0  0  0  0  0  0  0
   48.7685   83.3699   39.6283 C   0  0  0  0  0  0  0  0  0  0  0  0
   48.5095   83.4400   41.0721 N   0  0  0  0  0  0  0  0  0  0  0  0
   49.0981   84.6715   41.6466 C   0  0  0  0  0  0  0  0  0  0  0  0
   49.2754   84.5604   43.1676 C   0  0  0  0  0  0  0  0  0  0  0  0
   50.2079   83.5374   43.5426 O   0  0  0  0  0  0  0  0  0  0  0  0
   50.2939   82.4761   42.5836 C   0  0  0  0  0  0  0  0  0  0  0  0
   48.9828   82.2482   41.8128 C   0  0  0  0  0  0  0  0  0  0  0  0
   45.3313   80.4466   40.2559 C   0  0  0  0  0  0  0  0  0  0  0  0
   44.7018   79.3519   40.8534 C   0  0  0  0  0  0  0  0  0  0  0  0
   43.7195   78.6601   40.1471 C   0  0  0  0  0  0  0  0  0  0  0  0
   43.3417   79.0210   38.8413 C   0  0  0  0  0  0  0  0  0  0  0  0
   42.3363   78.3279   38.1030 N   0  0  0  0  0  0  0  0  0  0  0  0
   41.7384   77.3156   38.6724 C   0  0  0  0  0  0  0  0  0  0  0  0
   40.7693   76.6429   37.9747 N   0  0  0  0  0  0  0  0  0  0  0  0
   40.3371   77.0369   36.8236 C   0  0  0  0  0  0  0  0  0  0  0  0
   40.7600   78.1300   36.1629 O   0  0  0  0  0  0  0  0  0  0  0  0
   39.2996   76.3282   36.0660 C   0  0  0  0  0  0  0  0  0  0  0  0
   38.7199   75.1790   36.5537 C   0  0  0  0  0  0  0  0  0  0  0  0
   37.7595   74.4839   35.9009 N   0  0  0  0  0  0  0  0  0  0  0  0
   37.3862   74.9599   34.7085 C   0  0  0  0  0  0  0  0  0  0  0  0
   36.4017   74.2780   34.0284 N   0  0  0  0  0  0  0  0  0  0  0  0
   37.8668   76.0746   34.1486 N   0  0  0  0  0  0  0  0  0  0  0  0
   38.8247   76.7364   34.8404 C   0  0  0  0  0  0  0  0  0  0  0  0
   42.0681   76.9188   39.9384 N   0  0  0  0  0  0  0  0  0  0  0  0
   41.4831   75.8212   40.6562 C   0  0  0  0  0  0  0  0  0  0  0  0
   42.2565   75.8767   41.9866 C   0  0  0  0  0  0  0  0  0  0  0  0
   43.2252   77.0162   41.9123 N   0  0  0  0  0  0  0  0  0  0  0  0
   43.0143   77.5101   40.7208 C   0  0  0  0  0  0  0  0  0  0  0  0
   44.4268   78.8209   36.0629 H   0  0  0  0  0  0  0  0  0  0  0  0
   44.1286   80.2281   35.0305 H   0  0  0  0  0  0  0  0  0  0  0  0
   45.5141   80.2501   36.1326 H   0  0  0  0  0  0  0  0  0  0  0  0
   46.0178   82.9699   40.0367 H   0  0  0  0  0  0  0  0  0  0  0  0
   46.2368   83.7956   38.5137 H   0  0  0  0  0  0  0  0  0  0  0  0
   47.9593   81.3791   39.2571 H   0  0  0  0  0  0  0  0  0  0  0  0
   48.1048   82.3728   37.8388 H   0  0  0  0  0  0  0  0  0  0  0  0
   48.6260   84.3627   39.1808 H   0  0  0  0  0  0  0  0  0  0  0  0
   49.8112   83.0872   39.4351 H   0  0  0  0  0  0  0  0  0  0  0  0
   50.0813   84.8683   41.1986 H   0  0  0  0  0  0  0  0  0  0  0  0
   48.4452   85.5201   41.4145 H   0  0  0  0  0  0  0  0  0  0  0  0
   49.6473   85.5066   43.5737 H   0  0  0  0  0  0  0  0  0  0  0  0
   48.3183   84.3491   43.6589 H   0  0  0  0  0  0  0  0  0  0  0  0
   50.5716   81.5672   43.1271 H   0  0  0  0  0  0  0  0  0  0  0  0
   51.1143   82.7039   41.8930 H   0  0  0  0  0  0  0  0  0  0  0  0
   48.1986   81.9990   42.5388 H   0  0  0  0  0  0  0  0  0  0  0  0
   49.0904   81.3727   41.1642 H   0  0  0  0  0  0  0  0  0  0  0  0
   46.0935   80.9641   40.8298 H   0  0  0  0  0  0  0  0  0  0  0  0
   44.9721   79.0460   41.8614 H   0  0  0  0  0  0  0  0  0  0  0  0
   41.4621   78.5790   36.6849 H   0  0  0  0  0  0  0  0  0  0  0  0
   39.0096   74.7588   37.5125 H   0  0  0  0  0  0  0  0  0  0  0  0
   35.8374   73.7489   34.6776 H   0  0  0  0  0  0  0  0  0  0  0  0
   35.9239   74.9055   33.3973 H   0  0  0  0  0  0  0  0  0  0  0  0
   39.1992   77.6307   34.3504 H   0  0  0  0  0  0  0  0  0  0  0  0
   40.4101   75.9650   40.8201 H   0  0  0  0  0  0  0  0  0  0  0  0
   41.6465   74.8655   40.1474 H   0  0  0  0  0  0  0  0  0  0  0  0
   42.8053   74.9447   42.1588 H   0  0  0  0  0  0  0  0  0  0  0  0
   41.5745   76.0343   42.8289 H   0  0  0  0  0  0  0  0  0  0  0  0
  1  2  1  0
  2  3  1  0
  3  4  2  0
  4  5  1  0
  5  6  1  0
  6  7  1  0
  7  8  1  0
  8  9  1  0
  9 10  1  0
 10 11  1  0
 11 12  1  0
 12 13  1  0
 13 14  1  0
  4 15  1  0
 15 16  2  0
 16 17  1  0
 17 18  2  0
 18 19  1  0
 19 20  2  0
 20 21  1  0
 21 22  2  0
 22 23  1  0
 22 24  1  0
 24 25  2  0
 25 26  1  0
 26 27  2  0
 27 28  1  0
 27 29  1  0
 29 30  2  0
 20 31  1  0
 31 32  1  0
 32 33  1  0
 33 34  1  0
 34 35  2  0
 18  3  1  0
 30 24  1  0
 35 31  1  0
 14  9  1  0
 35 17  1  0
  1 36  1  0
  1 37  1  0
  1 38  1  0
  6 39  1  0
  6 40  1  0
  7 41  1  0
  7 42  1  0
  8 43  1  0
  8 44  1  0
 10 45  1  0
 10 46  1  0
 11 47  1  0
 11 48  1  0
 13 49  1  0
 13 50  1  0
 14 51  1  0
 14 52  1  0
 15 53  1  0
 16 54  1  0
 23 55  1  0
 25 56  1  0
 28 57  1  0
 28 58  1  0
 30 59  1  0
 32 60  1  0
 32 61  1  0
 33 62  1  0
 33 63  1  0
M  END
>  <zinc_id>
ZINC000068247389

>  <smiles>
COc1c(OCCCN2CCOCC2)ccc2c1N=C(/N=C(\O)c1cnc(N)nc1)N1CCN=C21

>  <Combo_Score>
0.4202988890545932

>  <Shape_Similarity>
0.4837413226160029

>  <3D_FP_Similarity>
0.3568564554931836

>  <QuerySmiles>
Cc1nc(Nc2ncc(C(=O)Nc3c(C)cccc3Cl)s2)cc(N2CCN(CCO)CC2)n1

$$$$

   VSFlow 1.0 (RDKit 3D)

 69 73  0  0  0  0  0  0  0  0999 V2000
   54.3279   83.8913   40.6226 C   0  0  0  0  0  0  0  0  0  0  0  0
   53.1905   83.0379   40.0698 C   0  0  0  0  0  0  0  0  0  0  0  0
   52.0675   82.9090   41.0126 N   0  0  0  0  0  0  0  0  0  0  0  0
   51.1361   81.8443   40.5775 C   0  0  0  0  0  0  0  0  0  0  0  0
   50.2252   82.2253   39.3846 C   0  0  0  0  0  0  0  0  0  0  0  0
   49.4654   83.4838   39.5568 N   0  0  0  0  0  0  0  0  0  0  0  0
   48.3474   83.3422   40.5053 C   0  0  0  0  0  0  0  0  0  0  0  0
   47.2327   82.4692   39.9888 C   0  0  0  0  0  0  0  0  0  0  0  0
   46.7588   81.3772   40.7113 C   0  0  0  0  0  0  0  0  0  0  0  0
   45.7093   80.6098   40.2009 C   0  0  0  0  0  0  0  0  0  0  0  0
   45.1396   80.9429   38.9781 C   0  0  0  0  0  0  0  0  0  0  0  0
   44.0986   80.2524   38.3869 N   0  0  0  0  0  0  0  0  0  0  0  0
   43.3513   79.1392   38.7173 C   0  0  0  0  0  0  0  0  0  0  0  0
   43.5671   78.4536   39.8508 N   0  0  0  0  0  0  0  0  0  0  0  0
   42.7834   77.3818   40.0829 C   0  0  0  0  0  0  0  0  0  0  0  0
   41.7982   76.9634   39.2268 C   0  0  0  0  0  0  0  0  0  0  0  0
   41.0479   75.8958   39.5287 F   0  0  0  0  0  0  0  0  0  0  0  0
   41.6288   77.7077   38.0772 C   0  0  0  0  0  0  0  0  0  0  0  0
   40.6143   77.4051   37.0425 C   0  0  0  0  0  0  0  0  0  0  0  0
   40.2322   76.0771   36.7423 C   0  0  0  0  0  0  0  0  0  0  0  0
   39.2618   75.8478   35.7473 C   0  0  0  0  0  0  0  0  0  0  0  0
   38.6632   76.8906   35.0482 C   0  0  0  0  0  0  0  0  0  0  0  0
   37.7466   76.4064   34.1520 N   0  0  0  0  0  0  0  0  0  0  0  0
   37.7588   75.0949   34.2774 C   0  0  0  0  0  0  0  0  0  0  0  0
   36.8914   74.1907   33.4801 C   0  0  0  0  0  0  0  0  0  0  0  0
   38.6822   74.7006   35.2278 N   0  0  0  0  0  0  0  0  0  0  0  0
   39.0058   73.3450   35.6693 C   0  0  0  0  0  0  0  0  0  0  0  0
   39.3252   72.3725   34.5330 C   0  0  0  0  0  0  0  0  0  0  0  0
   37.9466   72.7881   36.6199 C   0  0  0  0  0  0  0  0  0  0  0  0
   39.0490   78.2076   35.3366 C   0  0  0  0  0  0  0  0  0  0  0  0
   38.5036   79.2469   34.6880 F   0  0  0  0  0  0  0  0  0  0  0  0
   40.0132   78.4510   36.3186 C   0  0  0  0  0  0  0  0  0  0  0  0
   42.4021   78.7969   37.8272 N   0  0  0  0  0  0  0  0  0  0  0  0
   45.5867   82.0042   38.2701 N   0  0  0  0  0  0  0  0  0  0  0  0
   46.6083   82.7347   38.7789 C   0  0  0  0  0  0  0  0  0  0  0  0
   50.3961   84.5470   39.9934 C   0  0  0  0  0  0  0  0  0  0  0  0
   51.3089   84.1656   41.1854 C   0  0  0  0  0  0  0  0  0  0  0  0
   54.0501   84.9463   40.7004 H   0  0  0  0  0  0  0  0  0  0  0  0
   54.6415   83.5397   41.6112 H   0  0  0  0  0  0  0  0  0  0  0  0
   55.1951   83.8305   39.9565 H   0  0  0  0  0  0  0  0  0  0  0  0
   53.6131   82.0426   39.8821 H   0  0  0  0  0  0  0  0  0  0  0  0
   52.8756   83.4329   39.0976 H   0  0  0  0  0  0  0  0  0  0  0  0
   50.5087   81.5732   41.4361 H   0  0  0  0  0  0  0  0  0  0  0  0
   51.6920   80.9302   40.3335 H   0  0  0  0  0  0  0  0  0  0  0  0
   49.5534   81.3884   39.1614 H   0  0  0  0  0  0  0  0  0  0  0  0
   50.8463   82.3323   38.4858 H   0  0  0  0  0  0  0  0  0  0  0  0
   47.8987   84.3273   40.6928 H   0  0  0  0  0  0  0  0  0  0  0  0
   48.6881   82.9769   41.4813 H   0  0  0  0  0  0  0  0  0  0  0  0
   47.1948   81.1107   41.6704 H   0  0  0  0  0  0  0  0  0  0  0  0
   45.3548   79.7631   40.7760 H   0  0  0  0  0  0  0  0  0  0  0  0
   43.8283   80.6525   37.5021 H   0  0  0  0  0  0  0  0  0  0  0  0
   42.9744   76.8513   41.0096 H   0  0  0  0  0  0  0  0  0  0  0  0
   40.6878   75.2411   37.2642 H   0  0  0  0  0  0  0  0  0  0  0  0
   36.4145   73.4284   34.0994 H   0  0  0  0  0  0  0  0  0  0  0  0
   36.0916   74.7650   33.0004 H   0  0  0  0  0  0  0  0  0  0  0  0
   37.4677   73.7064   32.6866 H   0  0  0  0  0  0  0  0  0  0  0  0
   39.9349   73.4298   36.2447 H   0  0  0  0  0  0  0  0  0  0  0  0
   38.4267   72.0379   34.0077 H   0  0  0  0  0  0  0  0  0  0  0  0
   39.8122   71.4750   34.9309 H   0  0  0  0  0  0  0  0  0  0  0  0
   40.0031   72.8257   33.8019 H   0  0  0  0  0  0  0  0  0  0  0  0
   37.7763   73.4717   37.4591 H   0  0  0  0  0  0  0  0  0  0  0  0
   36.9860   72.6336   36.1202 H   0  0  0  0  0  0  0  0  0  0  0  0
   38.2668   71.8251   37.0316 H   0  0  0  0  0  0  0  0  0  0  0  0
   40.2850   79.4866   36.5134 H   0  0  0  0  0  0  0  0  0  0  0  0
   46.9246   83.5698   38.1584 H   0  0  0  0  0  0  0  0  0  0  0  0
   51.0232   84.8200   39.1353 H   0  0  0  0  0  0  0  0  0  0  0  0
   49.8384   85.4592   40.2398 H   0  0  0  0  0  0  0  0  0  0  0  0
   50.6881   84.0578   42.0843 H   0  0  0  0  0  0  0  0  0  0  0  0
   51.9777   85.0027   41.4115 H   0  0  0  0  0  0  0  0  0  0  0  0
  1  2  1  0
  2  3  1  0
  3  4  1  0
  4  5  1  0
  5  6  1  0
  6  7  1  0
  7  8  1  0
  8  9  2  0
  9 10  1  0
 10 11  2  0
 11 12  1  0
 12 13  1  0
 13 14  2  0
 14 15  1  0
 15 16  2  0
 16 17  1  0
 16 18  1  0
 18 19  1  0
 19 20  2  0
 20 21  1  0
 21 22  2  0
 22 23  1  0
 23 24  2  0
 24 25  1  0
 24 26  1  0
 26 27  1  0
 27 28  1  0
 27 29  1  0
 22 30  1  0
 30 31  1  0
 30 32  2  0
 18 33  2  0
 11 34  1  0
 34 35  2  0
  6 36  1  0
 36 37  1  0
 37  3  1  0
 35  8  1  0
 33 13  1  0
 32 19  1  0
 26 21  1  0
  1 38  1  0
  1 39  1  0
  1 40  1  0
  2 41  1  0
  2 42  1  0
  4 43  1  0
  4 44  1  0
  5 45  1  0
  5 46  1  0
  7 47  1  0
  7 48  1  0
  9 49  1  0
 10 50  1  0
 12 51  1  0
 15 52  1  0
 20 53  1  0
 25 54  1  0
 25 55  1  0
 25 56  1  0
 27 57  1  0
 28 58  1  0
 28 59  1  0
 28 60  1  0
 29 61  1  0
 29 62  1  0
 29 63  1  0
 32 64  1  0
 35 65  1  0
 36 66  1  0
 36 67  1  0
 37 68  1  0
 37 69  1  0
M  END
>  <zinc_id>
ZINC000072318121

>  <smiles>
CCN1CCN(Cc2ccc(Nc3ncc(F)c(-c4cc(F)c5nc(C)n(C(C)C)c5c4)n3)nc2)CC1

>  <Combo_Score>
0.4190416421133141

>  <Shape_Similarity>
0.4470437017994858

>  <3D_FP_Similarity>
0.39103958242714226

>  <QuerySmiles>
Cc1nc(Nc2ncc(C(=O)Nc3c(C)cccc3Cl)s2)cc(N2CCN(CCO)CC2)n1

$$$$

   VSFlow 1.0 (RDKit 3D)

 54 57  0  0  0  0  0  0  0  0999 V2000
   38.7887   74.6296   36.8906 C   0  0  0  0  0  0  0  0  0  0  0  0
   39.9516   75.1747   37.6323 C   0  0  0  0  0  0  0  0  0  0  0  0
   40.5358   76.4175   37.6745 C   0  0  0  0  0  0  0  0  0  0  0  0
   40.1262   77.5393   36.9625 C   0  0  0  0  0  0  0  0  0  0  0  0
   40.9510   78.6494   37.2444 C   0  0  0  0  0  0  0  0  0  0  0  0
   42.0731   78.6316   38.1496 C   0  0  0  0  0  0  0  0  0  0  0  0
   42.8059   79.8492   38.3218 N   0  0  0  0  0  0  0  0  0  0  0  0
   42.0767   80.7856   39.1876 C   0  0  0  0  0  0  0  0  0  0  0  0
   44.2187   79.9325   38.4777 C   0  0  0  0  0  0  0  0  0  0  0  0
   45.0299   79.1089   37.7188 C   0  0  0  0  0  0  0  0  0  0  0  0
   46.3830   79.2454   37.8908 C   0  0  0  0  0  0  0  0  0  0  0  0
   46.9340   80.1288   38.7357 N   0  0  0  0  0  0  0  0  0  0  0  0
   46.0973   80.9104   39.4273 C   0  0  0  0  0  0  0  0  0  0  0  0
   46.5559   81.8676   40.3293 N   0  0  0  0  0  0  0  0  0  0  0  0
   47.8225   82.2981   40.7341 C   0  0  0  0  0  0  0  0  0  0  0  0
   49.0190   81.7839   40.2348 C   0  0  0  0  0  0  0  0  0  0  0  0
   50.2602   82.2541   40.6838 C   0  0  0  0  0  0  0  0  0  0  0  0
   50.3495   83.2526   41.6633 C   0  0  0  0  0  0  0  0  0  0  0  0
   51.7119   83.7264   42.0816 C   0  0  0  0  0  0  0  0  0  0  0  0
   49.1503   83.7757   42.1732 C   0  0  0  0  0  0  0  0  0  0  0  0
   49.1255   85.0686   43.3913 S   0  0  0  0  0  6  0  0  0  0  0  0
   49.5995   84.2603   44.7855 N   0  0  0  0  0  0  0  0  0  0  0  0
   50.1603   86.0332   43.1046 O   0  0  0  0  0  0  0  0  0  0  0  0
   47.7587   85.4696   43.6393 O   0  0  0  0  0  0  0  0  0  0  0  0
   47.9092   83.3014   41.7097 C   0  0  0  0  0  0  0  0  0  0  0  0
   44.7597   80.8405   39.3173 N   0  0  0  0  0  0  0  0  0  0  0  0
   42.4487   77.4595   38.8557 C   0  0  0  0  0  0  0  0  0  0  0  0
   41.6445   76.3385   38.5916 C   0  0  0  0  0  0  0  0  0  0  0  0
   41.7246   75.0920   39.0815 N   0  0  0  0  0  0  0  0  0  0  0  0
   40.7142   74.4200   38.4931 N   0  0  0  0  0  0  0  0  0  0  0  0
   40.5271   73.0236   38.8173 C   0  0  0  0  0  0  0  0  0  0  0  0
   38.2326   75.4173   36.3737 H   0  0  0  0  0  0  0  0  0  0  0  0
   38.0925   74.1294   37.5716 H   0  0  0  0  0  0  0  0  0  0  0  0
   39.1200   73.9055   36.1395 H   0  0  0  0  0  0  0  0  0  0  0  0
   39.2949   77.5857   36.2740 H   0  0  0  0  0  0  0  0  0  0  0  0
   40.7306   79.5850   36.7275 H   0  0  0  0  0  0  0  0  0  0  0  0
   42.1792   80.5122   40.2452 H   0  0  0  0  0  0  0  0  0  0  0  0
   41.0057   80.8129   38.9521 H   0  0  0  0  0  0  0  0  0  0  0  0
   42.4351   81.8131   39.0495 H   0  0  0  0  0  0  0  0  0  0  0  0
   44.6285   78.3951   37.0123 H   0  0  0  0  0  0  0  0  0  0  0  0
   47.0843   78.6319   37.3337 H   0  0  0  0  0  0  0  0  0  0  0  0
   45.7578   82.3394   40.7287 H   0  0  0  0  0  0  0  0  0  0  0  0
   49.0181   81.0062   39.4764 H   0  0  0  0  0  0  0  0  0  0  0  0
   51.1619   81.8237   40.2509 H   0  0  0  0  0  0  0  0  0  0  0  0
   52.4943   83.0461   41.7266 H   0  0  0  0  0  0  0  0  0  0  0  0
   51.8037   83.7604   43.1704 H   0  0  0  0  0  0  0  0  0  0  0  0
   51.9179   84.7137   41.6578 H   0  0  0  0  0  0  0  0  0  0  0  0
   50.4694   84.6592   45.1381 H   0  0  0  0  0  0  0  0  0  0  0  0
   48.8368   84.2698   45.4632 H   0  0  0  0  0  0  0  0  0  0  0  0
   46.9910   83.7222   42.1159 H   0  0  0  0  0  0  0  0  0  0  0  0
   43.2717   77.4170   39.5546 H   0  0  0  0  0  0  0  0  0  0  0  0
   40.4431   72.4565   37.8871 H   0  0  0  0  0  0  0  0  0  0  0  0
   39.6154   72.9310   39.4123 H   0  0  0  0  0  0  0  0  0  0  0  0
   41.3861   72.6630   39.3894 H   0  0  0  0  0  0  0  0  0  0  0  0
  1  2  1  0
  2  3  2  0
  3  4  1  0
  4  5  2  0
  5  6  1  0
  6  7  1  0
  7  8  1  0
  7  9  1  0
  9 10  2  0
 10 11  1  0
 11 12  2  0
 12 13  1  0
 13 14  1  0
 14 15  1  0
 15 16  2  0
 16 17  1  0
 17 18  2  0
 18 19  1  0
 18 20  1  0
 20 21  1  0
 21 22  1  0
 21 23  2  0
 21 24  2  0
 20 25  2  0
 13 26  2  0
  6 27  2  0
 27 28  1  0
 28 29  2  0
 29 30  1  0
 30 31  1  0
 30  2  1  0
 28  3  1  0
 26  9  1  0
 25 15  1  0
  1 32  1  0
  1 33  1  0
  1 34  1  0
  4 35  1  0
  5 36  1  0
  8 37  1  0
  8 38  1  0
  8 39  1  0
 10 40  1  0
 11 41  1  0
 14 42  1  0
 16 43  1  0
 17 44  1  0
 19 45  1  0
 19 46  1  0
 19 47  1  0
 22 48  1  0
 22 49  1  0
 25 50  1  0
 27 51  1  0
 31 52  1  0
 31 53  1  0
 31 54  1  0
M  END
>  <zinc_id>
ZINC000011617039

>  <smiles>
Cc1ccc(Nc2nccc(N(C)c3ccc4c(C)n(C)nc4c3)n2)cc1S(N)(=O)=O

>  <Combo_Score>
0.41587470057744874

>  <Shape_Similarity>
0.4476537670592634

>  <3D_FP_Similarity>
0.3840956340956341

>  <QuerySmiles>
Cc1nc(Nc2ncc(C(=O)Nc3c(C)cccc3Cl)s2)cc(N2CCN(CCO)CC2)n1

$$$$

   VSFlow 1.0 (RDKit 3D)

 55 58  0  0  0  0  0  0  0  0999 V2000
   43.5757   77.2670   41.7329 C   0  0  0  0  0  0  0  0  0  0  0  0
   42.9048   77.3375   40.4136 C   0  0  0  0  0  0  0  0  0  0  0  0
   41.9510   76.5720   39.9740 N   0  0  0  0  0  0  0  0  0  0  0  0
   41.6256   77.0062   38.6746 N   0  0  0  0  0  0  0  0  0  0  0  0
   40.5965   76.3250   37.9768 C   0  0  0  0  0  0  0  0  0  0  0  0
   40.2132   76.6958   36.6850 C   0  0  0  0  0  0  0  0  0  0  0  0
   39.1950   76.0097   36.0137 C   0  0  0  0  0  0  0  0  0  0  0  0
   38.5314   74.9330   36.6152 C   0  0  0  0  0  0  0  0  0  0  0  0
   37.4426   74.2211   35.8605 C   0  0  0  0  0  0  0  0  0  0  0  0
   38.9027   74.5439   37.9140 C   0  0  0  0  0  0  0  0  0  0  0  0
   38.2275   73.3950   38.6124 C   0  0  0  0  0  0  0  0  0  0  0  0
   39.9289   75.2444   38.5759 C   0  0  0  0  0  0  0  0  0  0  0  0
   42.3721   78.0916   38.2287 C   0  0  0  0  0  0  0  0  0  0  0  0
   42.3904   78.7585   37.2141 O   0  0  0  0  0  0  0  0  0  0  0  0
   43.2764   78.3495   39.3941 C   0  0  0  0  0  0  0  0  0  0  0  0
   44.2047   79.2414   39.5600 N   0  0  0  0  0  0  0  0  0  0  0  0
   44.4287   80.0734   38.5058 N   0  0  0  0  0  0  0  0  0  0  0  0
   45.1653   81.2731   38.6603 C   0  0  0  0  0  0  0  0  0  0  0  0
   45.1956   82.1801   37.5932 C   0  0  0  0  0  0  0  0  0  0  0  0
   45.9375   83.3584   37.6769 C   0  0  0  0  0  0  0  0  0  0  0  0
   46.6757   83.6409   38.8274 C   0  0  0  0  0  0  0  0  0  0  0  0
   46.6980   82.7522   39.9162 C   0  0  0  0  0  0  0  0  0  0  0  0
   47.4992   83.0770   41.1121 C   0  0  0  0  0  0  0  0  0  0  0  0
   46.9121   83.1323   42.3873 C   0  0  0  0  0  0  0  0  0  0  0  0
   47.6649   83.4545   43.5194 C   0  0  0  0  0  0  0  0  0  0  0  0
   49.0255   83.7305   43.3966 C   0  0  0  0  0  0  0  0  0  0  0  0
   49.6346   83.6821   42.1385 C   0  0  0  0  0  0  0  0  0  0  0  0
   51.0775   83.9680   41.9531 C   0  0  0  0  0  0  0  0  0  0  0  0
   51.6741   83.9803   40.8922 O   0  0  0  0  0  0  0  0  0  0  0  0
   51.7126   84.2298   43.1098 O   0  0  0  0  0  0  0  0  0  0  0  0
   48.8726   83.3578   41.0066 C   0  0  0  0  0  0  0  0  0  0  0  0
   45.9394   81.5709   39.8028 C   0  0  0  0  0  0  0  0  0  0  0  0
   45.9681   80.6589   40.8325 O   0  0  0  0  0  0  0  0  0  0  0  0
   43.1481   76.4563   42.3286 H   0  0  0  0  0  0  0  0  0  0  0  0
   44.6438   77.0820   41.5921 H   0  0  0  0  0  0  0  0  0  0  0  0
   43.4393   78.2119   42.2652 H   0  0  0  0  0  0  0  0  0  0  0  0
   40.6881   77.5208   36.1622 H   0  0  0  0  0  0  0  0  0  0  0  0
   38.9253   76.3287   35.0086 H   0  0  0  0  0  0  0  0  0  0  0  0
   37.2878   74.6594   34.8688 H   0  0  0  0  0  0  0  0  0  0  0  0
   36.4947   74.2920   36.4031 H   0  0  0  0  0  0  0  0  0  0  0  0
   37.7048   73.1680   35.7177 H   0  0  0  0  0  0  0  0  0  0  0  0
   38.6417   73.2314   39.6129 H   0  0  0  0  0  0  0  0  0  0  0  0
   38.3663   72.4701   38.0438 H   0  0  0  0  0  0  0  0  0  0  0  0
   37.1578   73.5964   38.7282 H   0  0  0  0  0  0  0  0  0  0  0  0
   40.2069   74.9328   39.5811 H   0  0  0  0  0  0  0  0  0  0  0  0
   43.7879   80.0754   37.7008 H   0  0  0  0  0  0  0  0  0  0  0  0
   44.6382   81.9768   36.6822 H   0  0  0  0  0  0  0  0  0  0  0  0
   45.9441   84.0573   36.8442 H   0  0  0  0  0  0  0  0  0  0  0  0
   47.2400   84.5709   38.8718 H   0  0  0  0  0  0  0  0  0  0  0  0
   45.8513   82.9154   42.5023 H   0  0  0  0  0  0  0  0  0  0  0  0
   47.1875   83.4861   44.4953 H   0  0  0  0  0  0  0  0  0  0  0  0
   49.6004   83.9787   44.2849 H   0  0  0  0  0  0  0  0  0  0  0  0
   52.6389   84.3908   42.8336 H   0  0  0  0  0  0  0  0  0  0  0  0
   49.3583   83.3108   40.0327 H   0  0  0  0  0  0  0  0  0  0  0  0
   45.3984   79.9340   40.4939 H   0  0  0  0  0  0  0  0  0  0  0  0
  1  2  1  0
  2  3  2  0
  3  4  1  0
  4  5  1  0
  5  6  2  0
  6  7  1  0
  7  8  2  0
  8  9  1  0
  8 10  1  0
 10 11  1  0
 10 12  2  0
  4 13  1  0
 13 14  2  0
 13 15  1  0
 15 16  2  0
 16 17  1  0
 17 18  1  0
 18 19  2  0
 19 20  1  0
 20 21  2  0
 21 22  1  0
 22 23  1  0
 23 24  2  0
 24 25  1  0
 25 26  2  0
 26 27  1  0
 27 28  1  0
 28 29  2  0
 28 30  1  0
 27 31  2  0
 22 32  2  0
 32 33  1  0
 15  2  1  0
 32 18  1  0
 12  5  1  0
 31 23  1  0
  1 34  1  0
  1 35  1  0
  1 36  1  0
  6 37  1  0
  7 38  1  0
  9 39  1  0
  9 40  1  0
  9 41  1  0
 11 42  1  0
 11 43  1  0
 11 44  1  0
 12 45  1  0
 17 46  1  0
 19 47  1  0
 20 48  1  0
 21 49  1  0
 24 50  1  0
 25 51  1  0
 26 52  1  0
 30 53  1  0
 31 54  1  0
 33 55  1  0
M  END
>  <zinc_id>
ZINC000011679756

>  <smiles>
CC1=NN(c2ccc(C)c(C)c2)C(=O)/C1=N\Nc1cccc(-c2cccc(C(=O)O)c2)c1O

>  <Combo_Score>
0.4139427666655182

>  <Shape_Similarity>
0.5635969236836915

>  <3D_FP_Similarity>
0.26428860964734496

>  <QuerySmiles>
Cc1nc(Nc2ncc(C(=O)Nc3c(C)cccc3Cl)s2)cc(N2CCN(CCO)CC2)n1

$$$$

   VSFlow 1.0 (RDKit 3D)

 65 68  0  0  0  0  0  0  0  0999 V2000
   52.2045   85.6270   42.9843 C   0  0  0  0  0  0  0  0  0  0  0  0
   51.3978   85.2482   44.1026 O   0  0  0  0  0  0  0  0  0  0  0  0
   50.0881   85.1253   43.7166 C   0  0  0  0  0  0  0  0  0  0  0  0
   49.6576   83.8866   43.2318 C   0  0  0  0  0  0  0  0  0  0  0  0
   48.3272   83.6978   42.8225 C   0  0  0  0  0  0  0  0  0  0  0  0
   47.9630   82.4321   42.2907 N   0  0  0  0  0  0  0  0  0  0  0  0
   47.2278   82.1863   41.0871 C   0  0  0  0  0  0  0  0  0  0  0  0
   47.4991   82.8568   39.8833 C   0  0  0  0  0  0  0  0  0  0  0  0
   48.4960   83.8716   39.7461 C   0  0  0  0  0  0  0  0  0  0  0  0
   49.3165   84.6835   39.6195 N   0  0  0  0  0  0  0  0  0  0  0  0
   46.7880   82.4813   38.7574 C   0  0  0  0  0  0  0  0  0  0  0  0
   45.8700   81.4904   38.7331 N   0  0  0  0  0  0  0  0  0  0  0  0
   45.6229   80.8249   39.8712 C   0  0  0  0  0  0  0  0  0  0  0  0
   44.6913   79.7979   39.8385 C   0  0  0  0  0  0  0  0  0  0  0  0
   44.3681   79.0556   40.9778 C   0  0  0  0  0  0  0  0  0  0  0  0
   43.4750   78.0143   40.9854 O   0  0  0  0  0  0  0  0  0  0  0  0
   42.4214   78.0229   40.0172 C   0  0  0  0  0  0  0  0  0  0  0  0
   42.7433   77.0298   38.9029 C   0  0  0  0  0  0  0  0  0  0  0  0
   41.7230   77.0594   37.7602 C   0  0  0  0  0  0  0  0  0  0  0  0
   40.3330   76.8479   38.1875 N   0  0  0  0  0  0  0  0  0  0  0  0
   40.0698   75.4731   38.6693 C   0  0  0  0  0  0  0  0  0  0  0  0
   40.0364   74.3887   37.5652 C   0  0  0  0  0  0  0  0  0  0  0  0
   39.0843   74.7160   36.4888 N   0  0  0  0  0  0  0  0  0  0  0  0
   39.1343   73.7202   35.4225 C   0  0  0  0  0  0  0  0  0  0  0  0
   39.3465   76.0681   35.9653 C   0  0  0  0  0  0  0  0  0  0  0  0
   39.3842   77.1346   37.0865 C   0  0  0  0  0  0  0  0  0  0  0  0
   45.0118   79.3370   42.1907 C   0  0  0  0  0  0  0  0  0  0  0  0
   44.6558   78.5596   43.2625 O   0  0  0  0  0  0  0  0  0  0  0  0
   45.1507   78.9301   44.5415 C   0  0  0  0  0  0  0  0  0  0  0  0
   45.9555   80.3661   42.2353 C   0  0  0  0  0  0  0  0  0  0  0  0
   46.2791   81.1228   41.0833 C   0  0  0  0  0  0  0  0  0  0  0  0
   47.4294   84.7793   42.9631 C   0  0  0  0  0  0  0  0  0  0  0  0
   45.7494   84.6436   42.5673 Cl  0  0  0  0  0  0  0  0  0  0  0  0
   47.8567   86.0078   43.4807 C   0  0  0  0  0  0  0  0  0  0  0  0
   49.1853   86.1799   43.8608 C   0  0  0  0  0  0  0  0  0  0  0  0
   49.6705   87.7022   44.5104 Cl  0  0  0  0  0  0  0  0  0  0  0  0
   53.2244   85.7858   43.3468 H   0  0  0  0  0  0  0  0  0  0  0  0
   51.8551   86.5620   42.5328 H   0  0  0  0  0  0  0  0  0  0  0  0
   52.2314   84.8298   42.2334 H   0  0  0  0  0  0  0  0  0  0  0  0
   50.3815   83.0792   43.1578 H   0  0  0  0  0  0  0  0  0  0  0  0
   48.7266   81.7588   42.3562 H   0  0  0  0  0  0  0  0  0  0  0  0
   46.9469   82.9678   37.7967 H   0  0  0  0  0  0  0  0  0  0  0  0
   44.2287   79.5798   38.8813 H   0  0  0  0  0  0  0  0  0  0  0  0
   42.2036   79.0280   39.6369 H   0  0  0  0  0  0  0  0  0  0  0  0
   41.5193   77.6974   40.5476 H   0  0  0  0  0  0  0  0  0  0  0  0
   43.7356   77.2491   38.4898 H   0  0  0  0  0  0  0  0  0  0  0  0
   42.8348   76.0225   39.3260 H   0  0  0  0  0  0  0  0  0  0  0  0
   41.8013   78.0500   37.2927 H   0  0  0  0  0  0  0  0  0  0  0  0
   42.0294   76.3363   36.9958 H   0  0  0  0  0  0  0  0  0  0  0  0
   40.7875   75.1846   39.4445 H   0  0  0  0  0  0  0  0  0  0  0  0
   39.0950   75.4797   39.1762 H   0  0  0  0  0  0  0  0  0  0  0  0
   39.7420   73.4399   38.0301 H   0  0  0  0  0  0  0  0  0  0  0  0
   41.0468   74.2488   37.1602 H   0  0  0  0  0  0  0  0  0  0  0  0
   40.1201   73.6712   34.9461 H   0  0  0  0  0  0  0  0  0  0  0  0
   38.3900   73.9460   34.6510 H   0  0  0  0  0  0  0  0  0  0  0  0
   38.8912   72.7261   35.8136 H   0  0  0  0  0  0  0  0  0  0  0  0
   40.2925   76.0911   35.4090 H   0  0  0  0  0  0  0  0  0  0  0  0
   38.5520   76.3432   35.2611 H   0  0  0  0  0  0  0  0  0  0  0  0
   38.3791   77.2207   37.5213 H   0  0  0  0  0  0  0  0  0  0  0  0
   39.5965   78.1187   36.6505 H   0  0  0  0  0  0  0  0  0  0  0  0
   44.7048   78.2574   45.2804 H   0  0  0  0  0  0  0  0  0  0  0  0
   44.8557   79.9522   44.8015 H   0  0  0  0  0  0  0  0  0  0  0  0
   46.2372   78.8059   44.5925 H   0  0  0  0  0  0  0  0  0  0  0  0
   46.4526   80.6090   43.1691 H   0  0  0  0  0  0  0  0  0  0  0  0
   47.1503   86.8263   43.5947 H   0  0  0  0  0  0  0  0  0  0  0  0
  1  2  1  0
  2  3  1  0
  3  4  2  0
  4  5  1  0
  5  6  1  0
  6  7  1  0
  7  8  2  0
  8  9  1  0
  9 10  3  0
  8 11  1  0
 11 12  2  0
 12 13  1  0
 13 14  2  0
 14 15  1  0
 15 16  1  0
 16 17  1  0
 17 18  1  0
 18 19  1  0
 19 20  1  0
 20 21  1  0
 21 22  1  0
 22 23  1  0
 23 24  1  0
 23 25  1  0
 25 26  1  0
 15 27  2  0
 27 28  1  0
 28 29  1  0
 27 30  1  0
 30 31  2  0
  5 32  2  0
 32 33  1  0
 32 34  1  0
 34 35  2  0
 35 36  1  0
 35  3  1  0
 31  7  1  0
 31 13  1  0
 26 20  1  0
  1 37  1  0
  1 38  1  0
  1 39  1  0
  4 40  1  0
  6 41  1  0
 11 42  1  0
 14 43  1  0
 17 44  1  0
 17 45  1  0
 18 46  1  0
 18 47  1  0
 19 48  1  0
 19 49  1  0
 21 50  1  0
 21 51  1  0
 22 52  1  0
 22 53  1  0
 24 54  1  0
 24 55  1  0
 24 56  1  0
 25 57  1  0
 25 58  1  0
 26 59  1  0
 26 60  1  0
 29 61  1  0
 29 62  1  0
 29 63  1  0
 30 64  1  0
 34 65  1  0
M  END
>  <zinc_id>
ZINC000022448983

>  <smiles>
COc1cc(Nc2c(C#N)cnc3cc(OCCCN4CCN(C)CC4)c(OC)cc23)c(Cl)cc1Cl

>  <Combo_Score>
0.4120538587334836

>  <Shape_Similarity>
0.4800381878146155

>  <3D_FP_Similarity>
0.3440695296523517

>  <QuerySmiles>
Cc1nc(Nc2ncc(C(=O)Nc3c(C)cccc3Cl)s2)cc(N2CCN(CCO)CC2)n1

$$$$

   VSFlow 1.0 (RDKit 3D)

 47 50  0  0  0  0  0  0  0  0999 V2000
   53.0103   84.8731   42.5376 C   0  0  0  0  0  0  0  0  0  0  0  0
   51.7209   84.2554   42.6857 N   0  0  0  0  0  0  0  0  0  0  0  0
   51.0783   84.2484   43.8596 N   0  0  0  0  0  0  0  0  0  0  0  0
   49.9309   83.6335   43.6084 N   0  0  0  0  0  0  0  0  0  0  0  0
   49.9360   83.3006   42.2698 C   0  0  0  0  0  0  0  0  0  0  0  0
   48.8249   82.6051   41.6182 C   0  0  0  0  0  0  0  0  0  0  0  0
   48.8779   82.2836   40.2651 C   0  0  0  0  0  0  0  0  0  0  0  0
   47.7980   81.6155   39.6829 C   0  0  0  0  0  0  0  0  0  0  0  0
   46.6760   81.2760   40.4473 C   0  0  0  0  0  0  0  0  0  0  0  0
   45.5234   80.5632   39.8744 C   0  0  0  0  0  0  0  0  0  0  0  0
   44.9685   79.4473   40.5161 C   0  0  0  0  0  0  0  0  0  0  0  0
   43.8695   78.7648   39.9707 C   0  0  0  0  0  0  0  0  0  0  0  0
   43.2806   79.1714   38.7638 C   0  0  0  0  0  0  0  0  0  0  0  0
   42.1738   78.4644   38.2249 N   0  0  0  0  0  0  0  0  0  0  0  0
   41.5994   77.3058   38.8422 C   0  0  0  0  0  0  0  0  0  0  0  0
   40.6627   76.7761   37.7789 C   0  0  2  0  0  0  0  0  0  0  0  0
   41.3132   75.6907   36.9132 C   0  0  0  0  0  0  0  0  0  0  0  0
   40.4097   75.1554   35.9531 O   0  0  0  0  0  0  0  0  0  0  0  0
   39.1847   74.2756   36.4815 P   0  0  0  0  0  5  0  0  0  0  0  0
   39.3937   73.5581   37.7692 O   0  0  0  0  0  0  0  0  0  0  0  0
   37.9470   75.2783   36.5252 O   0  0  0  0  0  0  0  0  0  0  0  0
   38.8035   73.3781   35.2231 O   0  0  0  0  0  0  0  0  0  0  0  0
   40.3762   77.9239   36.9702 O   0  0  0  0  0  0  0  0  0  0  0  0
   41.3765   78.8461   37.1524 C   0  0  0  0  0  0  0  0  0  0  0  0
   41.4691   79.8354   36.4452 O   0  0  0  0  0  0  0  0  0  0  0  0
   43.8345   80.2814   38.1213 C   0  0  0  0  0  0  0  0  0  0  0  0
   44.9302   80.9566   38.6687 C   0  0  0  0  0  0  0  0  0  0  0  0
   45.4077   82.0187   38.0004 F   0  0  0  0  0  0  0  0  0  0  0  0
   46.7199   81.6504   41.7909 C   0  0  0  0  0  0  0  0  0  0  0  0
   47.7536   82.2914   42.3895 N   0  0  0  0  0  0  0  0  0  0  0  0
   51.0731   83.6891   41.6529 N   0  0  0  0  0  0  0  0  0  0  0  0
   53.4945   84.4859   41.6376 H   0  0  0  0  0  0  0  0  0  0  0  0
   53.6186   84.6358   43.4140 H   0  0  0  0  0  0  0  0  0  0  0  0
   52.8644   85.9525   42.4542 H   0  0  0  0  0  0  0  0  0  0  0  0
   49.7429   82.5446   39.6626 H   0  0  0  0  0  0  0  0  0  0  0  0
   47.8444   81.3628   38.6253 H   0  0  0  0  0  0  0  0  0  0  0  0
   45.3938   79.0816   41.4499 H   0  0  0  0  0  0  0  0  0  0  0  0
   43.4915   77.9136   40.5301 H   0  0  0  0  0  0  0  0  0  0  0  0
   42.3517   76.5696   39.1411 H   0  0  0  0  0  0  0  0  0  0  0  0
   41.0354   77.6361   39.7224 H   0  0  0  0  0  0  0  0  0  0  0  0
   39.7300   76.4186   38.2244 H   0  0  0  0  0  0  0  0  0  0  0  0
   41.6973   74.8715   37.5305 H   0  0  0  0  0  0  0  0  0  0  0  0
   42.1561   76.1031   36.3484 H   0  0  0  0  0  0  0  0  0  0  0  0
   37.2008   74.8846   37.0146 H   0  0  0  0  0  0  0  0  0  0  0  0
   38.7047   73.9267   34.4237 H   0  0  0  0  0  0  0  0  0  0  0  0
   43.4513   80.6606   37.1797 H   0  0  0  0  0  0  0  0  0  0  0  0
   45.8858   81.4461   42.4587 H   0  0  0  0  0  0  0  0  0  0  0  0
  1  2  1  0
  2  3  1  0
  3  4  2  0
  4  5  1  0
  5  6  1  0
  6  7  2  0
  7  8  1  0
  8  9  2  0
  9 10  1  0
 10 11  2  0
 11 12  1  0
 12 13  2  0
 13 14  1  0
 14 15  1  0
 15 16  1  0
 16 17  1  0
 17 18  1  0
 18 19  1  0
 19 20  2  0
 19 21  1  0
 19 22  1  0
 16 23  1  0
 23 24  1  0
 24 25  2  0
 13 26  1  0
 26 27  2  0
 27 28  1  0
  9 29  1  0
 29 30  2  0
  5 31  2  0
 31  2  1  0
 30  6  1  0
 27 10  1  0
 24 14  1  0
  1 32  1  0
  1 33  1  0
  1 34  1  0
  7 35  1  0
  8 36  1  0
 11 37  1  0
 12 38  1  0
 15 39  1  0
 15 40  1  0
 16 41  1  1
 17 42  1  0
 17 43  1  0
 21 44  1  0
 22 45  1  0
 26 46  1  0
 29 47  1  0
M  END
>  <zinc_id>
ZINC000043100953

>  <smiles>
Cn1nnc(-c2ccc(-c3ccc(N4C[C@H](COP(=O)(O)O)OC4=O)cc3F)cn2)n1

>  <Combo_Score>
0.4068873799121227

>  <Shape_Similarity>
0.5059705911378664

>  <3D_FP_Similarity>
0.30780416868637905

>  <QuerySmiles>
Cc1nc(Nc2ncc(C(=O)Nc3c(C)cccc3Cl)s2)cc(N2CCN(CCO)CC2)n1

$$$$

   VSFlow 1.0 (RDKit 3D)

 52 54  0  0  0  0  0  0  0  0999 V2000
   39.6657   76.4727   34.8921 N   0  0  0  0  0  0  0  0  0  0  0  0
   39.7133   75.9797   36.1395 C   0  0  0  0  0  0  0  0  0  0  0  0
   39.7980   76.7356   37.2073 N   0  0  0  0  0  0  0  0  0  0  0  0
   39.8225   75.9453   38.3533 C   0  0  0  0  0  0  0  0  0  0  0  0
   39.8968   76.6222   39.6821 C   0  0  0  0  0  0  0  0  0  0  0  0
   41.2709   77.2176   39.9491 C   0  0  0  0  0  0  0  0  0  0  0  0
   41.8564   76.9769   41.0023 O   0  0  0  0  0  0  0  0  0  0  0  0
   41.7071   78.0574   38.9381 N   0  0  0  0  0  0  0  0  0  0  0  0
   42.8968   78.8070   38.8825 C   0  0  0  0  0  0  0  0  0  0  0  0
   43.8250   78.8779   39.9200 C   0  0  0  0  0  0  0  0  0  0  0  0
   44.9840   79.6508   39.7829 C   0  0  0  0  0  0  0  0  0  0  0  0
   45.2348   80.3656   38.6065 C   0  0  0  0  0  0  0  0  0  0  0  0
   46.4839   81.2039   38.4677 C   0  0  0  0  0  0  0  0  0  0  0  0
   46.3468   82.6174   39.0622 C   0  0  0  0  0  0  0  0  0  0  0  0
   46.3268   82.6543   40.5272 N   0  0  0  0  0  0  0  0  0  0  0  0
   47.6510   82.4736   41.1496 C   0  0  0  0  0  0  0  0  0  0  0  0
   48.2360   83.7797   41.7460 C   0  0  2  0  0  0  0  0  0  0  0  0
   48.4126   84.7577   40.7167 O   0  0  0  0  0  0  0  0  0  0  0  0
   49.5553   83.5215   42.4432 C   0  0  0  0  0  0  0  0  0  0  0  0
   50.7759   83.5905   41.7546 C   0  0  0  0  0  0  0  0  0  0  0  0
   51.9796   83.3194   42.4078 C   0  0  0  0  0  0  0  0  0  0  0  0
   51.9785   82.9706   43.7565 C   0  0  0  0  0  0  0  0  0  0  0  0
   50.7746   82.8927   44.4531 C   0  0  0  0  0  0  0  0  0  0  0  0
   49.5701   83.1644   43.8011 C   0  0  0  0  0  0  0  0  0  0  0  0
   44.2989   80.3005   37.5691 C   0  0  0  0  0  0  0  0  0  0  0  0
   43.1421   79.5269   37.7072 C   0  0  0  0  0  0  0  0  0  0  0  0
   39.7790   74.5853   38.1164 C   0  0  0  0  0  0  0  0  0  0  0  0
   39.6919   74.2891   36.4325 S   0  0  0  0  0  0  0  0  0  0  0  0
   39.9711   77.4321   34.7826 H   0  0  0  0  0  0  0  0  0  0  0  0
   39.9550   75.8607   34.1385 H   0  0  0  0  0  0  0  0  0  0  0  0
   39.6660   75.9091   40.4822 H   0  0  0  0  0  0  0  0  0  0  0  0
   39.1552   77.4273   39.7374 H   0  0  0  0  0  0  0  0  0  0  0  0
   41.1234   78.0706   38.1022 H   0  0  0  0  0  0  0  0  0  0  0  0
   43.6778   78.3481   40.8554 H   0  0  0  0  0  0  0  0  0  0  0  0
   45.6881   79.6976   40.6112 H   0  0  0  0  0  0  0  0  0  0  0  0
   47.3341   80.6670   38.9058 H   0  0  0  0  0  0  0  0  0  0  0  0
   46.7241   81.2996   37.4006 H   0  0  0  0  0  0  0  0  0  0  0  0
   45.4125   83.0642   38.7002 H   0  0  0  0  0  0  0  0  0  0  0  0
   47.1558   83.2517   38.6812 H   0  0  0  0  0  0  0  0  0  0  0  0
   45.8645   83.4939   40.8692 H   0  0  0  0  0  0  0  0  0  0  0  0
   47.5331   81.7374   41.9539 H   0  0  0  0  0  0  0  0  0  0  0  0
   48.3646   82.0426   40.4367 H   0  0  0  0  0  0  0  0  0  0  0  0
   47.5308   84.2110   42.4675 H   0  0  0  0  0  0  0  0  0  0  0  0
   47.5647   84.8118   40.2472 H   0  0  0  0  0  0  0  0  0  0  0  0
   50.7927   83.8648   40.7016 H   0  0  0  0  0  0  0  0  0  0  0  0
   52.9175   83.3831   41.8626 H   0  0  0  0  0  0  0  0  0  0  0  0
   52.9160   82.7607   44.2644 H   0  0  0  0  0  0  0  0  0  0  0  0
   50.7731   82.6201   45.5052 H   0  0  0  0  0  0  0  0  0  0  0  0
   48.6403   83.0949   44.3617 H   0  0  0  0  0  0  0  0  0  0  0  0
   44.4619   80.8497   36.6451 H   0  0  0  0  0  0  0  0  0  0  0  0
   42.4355   79.4957   36.8821 H   0  0  0  0  0  0  0  0  0  0  0  0
   39.7934   73.7743   38.8308 H   0  0  0  0  0  0  0  0  0  0  0  0
  1  2  1  0
  2  3  2  0
  3  4  1  0
  4  5  1  0
  5  6  1  0
  6  7  2  0
  6  8  1  0
  8  9  1  0
  9 10  2  0
 10 11  1  0
 11 12  2  0
 12 13  1  0
 13 14  1  0
 14 15  1  0
 15 16  1  0
 17 16  1  0
 17 18  1  0
 17 19  1  0
 19 20  2  0
 20 21  1  0
 21 22  2  0
 22 23  1  0
 23 24  2  0
 12 25  1  0
 25 26  2  0
  4 27  2  0
 27 28  1  0
 28  2  1  0
 26  9  1  0
 24 19  1  0
  1 29  1  0
  1 30  1  0
  5 31  1  0
  5 32  1  0
  8 33  1  0
 10 34  1  0
 11 35  1  0
 13 36  1  0
 13 37  1  0
 14 38  1  0
 14 39  1  0
 15 40  1  0
 16 41  1  0
 16 42  1  0
 17 43  1  1
 18 44  1  0
 20 45  1  0
 21 46  1  0
 22 47  1  0
 23 48  1  0
 24 49  1  0
 25 50  1  0
 26 51  1  0
 27 52  1  0
M  END
>  <zinc_id>
ZINC000001996784

>  <smiles>
Nc1nc(CC(=O)Nc2ccc(CCNC[C@H](O)c3ccccc3)cc2)cs1

>  <Combo_Score>
0.3991439387741441

>  <Shape_Similarity>
0.4972183588317107

>  <3D_FP_Similarity>
0.30106951871657756

>  <QuerySmiles>
Cc1nc(Nc2ncc(C(=O)Nc3c(C)cccc3Cl)s2)cc(N2CCN(CCO)CC2)n1

$$$$
